*Heading
** Job name: notchedcrack Model name: notchedcrack
** Generated by: Abaqus/CAE 6.13-2
*Preprint, echo=NO, model=NO, history=NO, contact=NO
**
** PARTS
**
*Part, name=Part-1
*Node
      1, -3.72529056e-11, 0.000499999966
      2,           0., 0.00499999989
      3, 0.000500000024,           0.
      4, -4.99999151e-05, -0.000549999997
      5, -4.99999151e-05, -0.00499999989
      6, 0.00499999989, -0.00499999989
      7, 0.00499999989, 0.00499999989
      8, -3.31136923e-11, 0.000999999931
      9, -2.89744808e-11, 0.00150000001
     10, -2.48352693e-11, 0.00199999986
     11, -2.06960577e-11, 0.00249999994
     12, -1.65568462e-11, 0.00300000003
     13, -1.24176346e-11, 0.00349999988
     14, -8.27842309e-12, 0.00400000019
     15, -4.13921154e-12, 0.00449999981
     16, 0.00022500004, -0.000274999999
     17, -4.99999151e-05, -0.00450555561
     18, -4.99999151e-05, -0.00401111087
     19, -4.99999151e-05, -0.00351666659
     20, -4.99999151e-05, -0.00302222208
** ... 239 like lines cut
*Element, type=CPS3
  1, 133, 116,  15
  2, 177, 134, 149
  3,  63,  16,  62
  4, 109, 108,  68
  5,  86,  46,  85
  6,  93,   1,   3
  7, 145, 134,  99
  8, 135,  94, 134
  9, 201, 161, 191
 10,  96,  11,  95
 11, 155,  71, 111
 12,  71,  57,  56
 13,  98,  13,  97
 14,  62,   4,  24
 15,  17,   5,  33
 16,  64,  17,  33
 17, 103,  31, 102
 18,  65,  19,  18
 19,  66,  20,  19
 20,  67,  21,  20
** ... 435 like lines cut
*Elset, elset=BULK, generate
   1,  455,    1
** Section: Section-1-BULK
*Solid Section, elset=BULK, material=MAT1
,
*End Part
**  
**
** ASSEMBLY
**
*Assembly, name=Assembly
**  
*Instance, name=Part-1-1, part=Part-1
*End Instance
**  
*Nset, nset=BOTTOMNODES, instance=Part-1-1
  5,  6, 25, 26, 27, 28, 29, 30, 31, 32, 33
*Nset, nset=TOPNODES, instance=Part-1-1
  2,  7, 53, 54, 55, 56, 57, 58, 59, 60, 61
*End Assembly
*Amplitude, name=AMP-1, time=TOTAL TIME
             0.,              0.,             0.1,              1.
** 
** MATERIALS
** 
*Material, name=ADHESIVE
*Damage Initiation, criterion=QUADS
61.,68.,68.
*Damage Evolution, type=ENERGY, mixed mode behavior=BK, power=1.45
 0.075, 0.547, 0.547
*Density
1500.,
*Elastic, type=TRACTION
 1e+06, 1e+06, 1e+06
*Material, name=MAT1
*Density
1500.,
*Elastic
 1e+10, 0.35
** ----------------------------------------------------------------
** 
** STEP: Step-1
** 
*Step, name=Step-1, nlgeom=YES
*Dynamic, Explicit
, 0.1
*Bulk Viscosity
0.06, 1.2
** 
** BOUNDARY CONDITIONS
** 
** Name: BC-1 Type: Displacement/Rotation
*Boundary, amplitude=AMP-1
BOTTOMNODES, 2, 2, -0.001
** Name: BC-2 Type: Displacement/Rotation
*Boundary, amplitude=AMP-1
TOPNODES, 2, 2, 0.001
** 
** OUTPUT REQUESTS
** 
*Restart, write, number interval=1, time marks=NO
** 
** FIELD OUTPUT: F-Output-1
** 
*Output, field, number interval=100
*Node Output
A, RF, U, V
** 
** FIELD OUTPUT: F-Output-2
** 
*Element Output, directions=YES
E, MISES, S
** 
** HISTORY OUTPUT: H-Output-1
** 
*Output, history, variable=PRESELECT
*End Step
